Circuit: * X:\AHS\Netzfrequenz\Netzfrequenz\LTSpice Filter Simulation\6thOrderButterworth.asc

Number of points reduced from 100000 to 65535.
Direct Newton iteration for .op point succeeded.

Date: Tue Mar 23 10:21:14 2021
Total elapsed time: 4.312 seconds.

tnom = 27
temp = 27
method = trap
totiter = 3
traniter = 0
tranpoints = 0
accept = 0
rejected = 0
matrix size = 18
fillins = 8
solver = Normal
Matrix Compiler1:      75 opcodes
Matrix Compiler2: 1.94 KB object code size
